03_OpenDSS_Circuits/Mocksville_Main_Circuit_Opendss/MOCKS_03/Elements/Lines.dss
New Line.627400975 Phases= 3 Bus1=264389201.1.2.3 Bus2=627400973.1.2.3 Length=11.28  units=m  Spacing=8'-ARM-NON-CENTER-POST-3PH wires=['1/0-ACSR-B-6X1' '1/0-ACSR-B-6X1' '1/0-ACSR-B-6X1' '2-ACSR-B-6X1']
New Line.254438561 Phases= 3 Bus1=254438558.1.2.3 Bus2=254438563.1.2.3 Length=59.54  units=m  Spacing=8'-ARM-NON-CENTER-POST-3PH wires=['1/0-ACSR-B-6X1' '1/0-ACSR-B-6X1' '1/0-ACSR-B-6X1' '1/0-ACSR-B-6X1']
New Line.254438277 Phases= 3 Bus1=254438274.1.2.3 Bus2=254438279.1.2.3 Length=31.43  units=m  Spacing=8'-ARM-NON-CENTER-POST-3PH wires=['1/0-ACSR-B-6X1' '1/0-ACSR-B-6X1' '1/0-ACSR-B-6X1' '2-ACSR-B-6X1']
New Line.624542248 Phases= 1 Bus1=624542245.1     Bus2=254438348.1     Length=45.10  units=m  Spacing=VERTICAL-1-PH-60-1PH wires=['2-ACSR-B-6X1' '2-ACSR-B-6X1']
New Line.254438220 Phases= 3 Bus1=254438217.1.2.3 Bus2=254438222.1.2.3 Length=52.96  units=m  Spacing=8'-ARM-NON-CENTER-POST-3PH wires=['4-ACSR-B-6X1' '4-ACSR-B-6X1' '4-ACSR-B-6X1' '4-ACSR-B-6X1']
New Line.254443682 Phases= 3 Bus1=254443679.1.2.3 Bus2=254443689.1.2.3 Length=24.96  units=m  Spacing=8'-ARM-NON-CENTER-POST-3PH wires=['1/0-ACSR-B-6X1' '1/0-ACSR-B-6X1' '1/0-ACSR-B-6X1' '1/0-ACSR-B-6X1']
New Line.483410973 Bus1=260115213.1     Bus2=260115218.1     LineCode=1/0-AL-HMWPECN-25KV Phases= 1 Length=788.70 units=m enable=yes
New Line.254438027 Phases= 3 Bus1=254437914.1.2.3 Bus2=254438029.1.2.3 Length=40.33  units=m  Spacing=8'-ARM-NON-CENTER-POST-3PH wires=['4-ACSR-B-6X1' '4-ACSR-B-6X1' '1/0-ACSR-B-6X1' '2-ACSR-B-6X1']
New Line.254437405 Phases= 3 Bus1=254437402.1.2.3 Bus2=254437407.1.2.3 Length=21.44  units=m  Spacing=8'-ARM-NON-CENTER-POST-3PH wires=['336-ACSR-B-18X1' '336-ACSR-B-18X1' '336-ACSR-B-18X1' '1/0-ACSR-B-6X1']
New Line.259157671 Phases= 3 Bus1=259112301.1.2.3 Bus2=259157673.1.2.3 Length=12.23  units=m  Spacing=8'-ARM-STANDARD-3PH wires=['1/0-ACSR-B-6X1' '1/0-ACSR-B-6X1' '1/0-ACSR-B-6X1' '1/0-ACSR-B-6X1']
New Line.254437661 Phases= 3 Bus1=254437658.1.2.3 Bus2=254437663.1.2.3 Length=60.84  units=m  Spacing=8'-ARM-NON-CENTER-POST-3PH wires=['4-ACSR-B-6X1' '4-ACSR-B-6X1' '1/0-ACSR-B-6X1' '2-ACSR-B-6X1']
New Line.624542208 Phases= 3 Bus1=624542205.1.2.3 Bus2=254438323.1.2.3 Length=19.03  units=m  Spacing=8'-ARM-NON-CENTER-POST-3PH wires=['1/0-ACSR-B-6X1' '1/0-ACSR-B-6X1' '1/0-ACSR-B-6X1' '1/0-ACSR-B-6X1']
New Line.624566228 Phases= 2 Bus1=624566225.1.2   Bus2=254437266.1.2   Length=23.95  units=m  Spacing=8'-ARM-STANDARD-2PH wires=['2-ACSR-B-6X1' '2-ACSR-B-6X1' '2-ACSR-B-6X1']
New Line.254438165 Phases= 3 Bus1=254438153.1.2.3 Bus2=254438167.1.2.3 Length=46.73  units=m  Spacing=8'-ARM-NON-CENTER-POST-3PH wires=['1/0-ACSR-B-6X1' '1/0-ACSR-B-6X1' '1/0-ACSR-B-6X1' '2-ACSR-B-6X1']
New Line.260115328 Bus1=260115325.3     Bus2=260115330.3     LineCode=1/0-AL-HMWPECN-25KV Phases= 1 Length=75.42  units=m enable=yes
New Line.263915091 Phases= 1 Bus1=254438588.1     Bus2=263915093.1     Length=1.52   units=m  Spacing=VERTICAL-1-PH-104-1PH wires=['1/0-ACSR-B-6X1' '1/0-ACSR-B-6X1']
New Line.262291914 Phases= 1 Bus1=262291911.2     Bus2=254437989.2     Length=144.10 units=m  Spacing=VERTICAL-1-PH-60-1PH wires=['2-ACSR-B-6X1' '2-ACSR-B-6X1']
New Line.254437499 Phases= 3 Bus1=254437471.1.2.3 Bus2=254437501.1.2.3 Length=84.82  units=m  Spacing=8'-ARM-NON-CENTER-POST-3PH wires=['4-ACSR-B-6X1' '4-ACSR-B-6X1' '1/0-ACSR-B-6X1' '2-ACSR-B-6X1']
New Line.620619124 Phases= 1 Bus1=620619113.3     Bus2=620619122.3     Length=19.51  units=m  Spacing=VERTICAL-1-PH-60-1PH wires=['2-ACSR-B-6X1' '2-ACSR-B-6X1']
New Line.254437795 Phases= 3 Bus1=254437787.1.2.3 Bus2=254437797.1.2.3 Length=88.01  units=m  Spacing=8'-ARM-STANDARD-3PH wires=['2-ACSR-B-6X1' '2-ACSR-B-6X1' '2-ACSR-B-6X1' '2-ACSR-B-6X1']
New Line.254443986 Phases= 3 Bus1=254443983.1.2.3 Bus2=254443988.1.2.3 Length=68.57  units=m  Spacing=8'-ARM-NON-CENTER-POST-3PH wires=['1/0-CU-TBWP-7' '1/0-CU-TBWP-7' '1/0-CU-TBWP-7' '1/0-CU-TBWP-7']
New Line.624621771 Phases= 3 Bus1=254433016.1.2.3 Bus2=624621769.1.2.3 Length=15.29  units=m  Spacing=8'-ARM-NON-CENTER-POST-3PH wires=['336-ACSR-B-18X1' '336-ACSR-B-18X1' '336-ACSR-B-18X1' '336-ACSR-B-18X1']
New Line.254437291 Phases= 2 Bus1=254437288.1.2   Bus2=254437293.1.2   Length=38.98  units=m  Spacing=8'-ARM-STANDARD-2PH wires=['2-ACSR-B-6X1' '2-ACSR-B-6X1' '2-ACSR-B-6X1']
New Line.263877942 Bus1=254443689.1.2.3 Bus2=263877944.1.2.3 LineCode=1/0-AL-HMWPECN-25KV Phases= 3 Length=1.53   units=m enable=yes
New Line.262291972 Phases= 1 Bus1=254438039.1     Bus2=262291974.1     Length=1.52   units=m  Spacing=VERTICAL-1-PH-60-1PH wires=['1/0-ACSR-B-6X1' '2-ACSR-B-6X1']
New Line.262291846 Phases= 1 Bus1=254437700.2     Bus2=262291848.2     Length=1.52   units=m  Spacing=VERTICAL-1-PH-60-1PH wires=['4-ACSR-B-6X1' '4-ACSR-B-6X1']
New Line.254444442 Phases= 3 Bus1=254433062.1.2.3 Bus2=254444444.1.2.3 Length=56.88  units=m  Spacing=8'-ARM-NON-CENTER-POST-3PH wires=['336-ACSR-B-18X1' '336-ACSR-B-18X1' '336-ACSR-B-18X1' '1/0-ACSR-B-6X1']
New Line.262293477 Bus1=262293474.1.2.3 Bus2=260116858.1.2.3 LineCode=1/0-AL-HMWPECN-25KV Phases= 3 Length=53.03  units=m enable=yes
New Line.624565548 Phases= 3 Bus1=624565545.1.2.3 Bus2=624565534.1.2.3 Length=47.72  units=m  Spacing=8'-ARM-NON-CENTER-POST-3PH wires=['1/0-CU-TBWP-7' '1/0-CU-TBWP-7' '1/0-CU-TBWP-7' '1/0-CU-TBWP-7']
New Line.624565641 Phases= 1 Bus1=624565638.2     Bus2=254443918.2     Length=31.78  units=m  Spacing=VERTICAL-1-PH-60-1PH wires=['1/0-ACSR-B-6X1' '1/0-ACSR-B-6X1']
New Line.254443759 Phases= 1 Bus1=254443756.3     Bus2=254443761.3     Length=44.67  units=m  Spacing=VERTICAL-1-PH-60-1PH wires=['2-ACSR-B-6X1' '2-ACSR-B-6X1']
New Line.254443567 Phases= 3 Bus1=254443564.1.2.3 Bus2=254443569.1.2.3 Length=106.30 units=m  Spacing=8'-ARM-NON-CENTER-POST-3PH wires=['1/0-ACSR-B-6X1' '1/0-ACSR-B-6X1' '1/0-ACSR-B-6X1' '1/0-ACSR-B-6X1']
New Line.467036950 Phases= 1 Bus1=254438148.1     Bus2=467036947.1     Length=46.53  units=m  Spacing=VERTICAL-1-PH-60-1PH wires=['2-ACSR-B-6X1' '2-ACSR-B-6X1']
New Line.254437242 Phases= 3 Bus1=254437234.1.2.3 Bus2=254437244.1.2.3 Length=34.81  units=m  Spacing=HORIZ-LINE-POST-3PH wires=['336-ACSR-B-18X1' '336-ACSR-B-18X1' '336-ACSR-B-18X1' '1/0-ACSR-B-6X1']
New Line.254433217 Phases= 1 Bus1=254433214.2     Bus2=254433219.2     Length=64.69  units=m  Spacing=VERTICAL-1-PH-60-1PH wires=['1/0-ACSR-B-6X1' '1/0-ACSR-B-6X1']
New Line.254437810 Phases= 3 Bus1=254437807.1.2.3 Bus2=254437812.1.2.3 Length=97.02  units=m  Spacing=8'-ARM-NON-CENTER-POST-3PH wires=['4-ACSR-B-6X1' '4-ACSR-B-6X1' '1/0-ACSR-B-6X1' '2-ACSR-B-6X1']
New Line.264425881 Phases= 3 Bus1=264425878.1.2.3 Bus2=254444102.1.2.3 Length=12.82  units=m  Spacing=8'-ARM-NON-CENTER-POST-3PH wires=['1/0-ACSR-B-6X1' '1/0-ACSR-B-6X1' '1/0-ACSR-B-6X1' '1/0-ACSR-B-6X1']
New Line.624563712 Phases= 3 Bus1=254433408.1.2.3 Bus2=624563710.1.2.3 Length=84.72  units=m  Spacing=HORIZ-LINE-POST-3PH wires=['336-ACSR-B-18X1' '336-ACSR-B-18X1' '336-ACSR-B-18X1' '1/0-ACSR-B-6X1']
New Line.620619042 Phases= 3 Bus1=620619039.1.2.3 Bus2=254443534.1.2.3 Length=59.17  units=m  Spacing=8'-ARM-NON-CENTER-POST-3PH wires=['1/0-ACSR-B-6X1' '1/0-ACSR-B-6X1' '1/0-ACSR-B-6X1' '1/0-ACSR-B-6X1']
New Line.482826797 Phases= 3 Bus1=254443741.1.2.3 Bus2=482826796.1.2.3 Length=32.44  units=m  Spacing=8'-ARM-NON-CENTER-POST-3PH wires=['1/0-ACSR-B-6X1' '1/0-ACSR-B-6X1' '1/0-ACSR-B-6X1' '2-ACSR-B-6X1']
New Line.254433094 Phases= 3 Bus1=254433091.1.2.3 Bus2=254433096.1.2.3 Length=29.69  units=m  Spacing=DBL-CKT-10'-&amp;-8'-ARMS-3PH wires=['2-ACSR-B-6X1' '2-ACSR-B-6X1' '2-ACSR-B-6X1' '2-ACSR-B-6X1']
New Line.260115363 Bus1=260115360.3     Bus2=260115365.3     LineCode=1/0-AL-HMWPECN-25KV Phases= 1 Length=123.20 units=m enable=yes
New Line.624565980 Phases= 2 Bus1=624565977.1.2   Bus2=254444209.1.2   Length=82.02  units=m  Spacing=8'-ARM-STANDARD-2PH wires=['1/0-ACSR-B-6X1' '1/0-ACSR-B-6X1' '1/0-ACSR-B-6X1']
New Line.254437442 Phases= 3 Bus1=254437443.1.2.3 Bus2=254437444.1.2.3 Length=59.66  units=m  Spacing=8'-ARM-NON-CENTER-POST-3PH wires=['1/0-ACSR-B-6X1' '1/0-ACSR-B-6X1' '1/0-ACSR-B-6X1' '2-ACSR-B-6X1']
New Line.262291837 Bus1=254437715.1     Bus2=262291839.1     LineCode=1/0-AL-HMWPECN-25KV Phases= 1 Length=1.52   units=m enable=yes
New Line.263664416 Phases= 3 Bus1=263664413.1.2.3 Bus2=254437239.1.2.3 Length=46.25  units=m  Spacing=8'-ARM-NON-CENTER-POST-3PH wires=['2-ACSR-B-6X1' '1/0-ACSR-B-6X1' '2-ACSR-B-6X1' '2-ACSR-B-6X1']
New Line.275418580 Phases= 1 Bus1=254438533.3     Bus2=275418496.3     Length=1.53   units=m  Spacing=VERTICAL-1-PH-60-1PH wires=['4-ACSR-B-6X1' '4-ACSR-B-6X1']
New Line.262293379 Phases= 3 Bus1=254443467.1.2.3 Bus2=262293381.1.2.3 Length=1.53   units=m  Spacing=8'-ARM-NON-CENTER-POST-3PH wires=['1/0-ACSR-B-6X1' '1/0-ACSR-B-6X1' '1/0-ACSR-B-6X1' '1/0-ACSR-B-6X1']
New Line.263915096 Phases= 1 Bus1=263915093.1     Bus2=259424154.1     Length=20.00  units=m  Spacing=VERTICAL-1-PH-104-1PH wires=['1/0-ACSR-B-6X1' '1/0-ACSR-B-6X1']
New Line.699304532 Phases= 3 Bus1=699304529.1.2.3 Bus2=254438074.1.2.3 Length=34.55  units=m  Spacing=8'-ARM-NON-CENTER-POST-3PH wires=['1/0-ACSR-B-6X1' '1/0-ACSR-B-6X1' '1/0-ACSR-B-6X1' '2-ACSR-B-6X1']
New Line.254433155 Phases= 2 Bus1=254433152.1.2   Bus2=254433157.1.2   Length=41.93  units=m  Spacing=8'-ARM-STANDARD-2PH wires=['1/0-ACSR-B-6X1' '1/0-ACSR-B-6X1' '1/0-ACSR-B-6X1']
New Line.624587311 Phases= 3 Bus1=254444129.1.2.3 Bus2=624587309.1.2.3 Length=18.90  units=m  Spacing=8'-ARM-NON-CENTER-POST-3PH wires=['6-CU-B-S' '6-CU-B-S' '6-CU-B-S' '6-CU-B-S']
New Line.264030150 Phases= 1 Bus1=254438493.3     Bus2=264030152.3     Length=1.52   units=m  Spacing=VERTICAL-1-PH-60-1PH wires=['4-ACSR-B-6X1' '4-ACSR-B-6X1']
New Line.620619125 Phases= 1 Bus1=620619122.3     Bus2=254443524.3     Length=30.71  units=m  Spacing=VERTICAL-1-PH-60-1PH wires=['2-ACSR-B-6X1' '2-ACSR-B-6X1']
New Line.624586643 Phases= 3 Bus1=624586640.1.2.3 Bus2=254444075.1.2.3 Length=36.83  units=m  Spacing=8'-ARM-NON-CENTER-POST-3PH wires=['1/0-ACSR-B-6X1' '1/0-ACSR-B-6X1' '1/0-ACSR-B-6X1' '1/0-ACSR-B-6X1']
New Line.695135429 Phases= 3 Bus1=695135426.1.2.3 Bus2=254433033.1.2.3 Length=31.19  units=m  Spacing=DBL-CKT-10'-&amp;-8'-ARMS-3PH wires=['336-ACSR-B-18X1' '336-ACSR-B-18X1' '336-ACSR-B-18X1' '336-ACSR-B-18X1']
New Line.262293441 Bus1=262293438.3     Bus2=260116838.3     LineCode=1/0-AL-HMWPECN-25KV Phases= 1 Length=42.77  units=m enable=yes
New Line.262292044 Phases= 3 Bus1=254438264.1.2.3 Bus2=262292046.1.2.3 Length=1.52   units=m  Spacing=8'-ARM-NON-CENTER-POST-3PH wires=['1/0-ACSR-B-6X1' '1/0-ACSR-B-6X1' '1/0-ACSR-B-6X1' '2-ACSR-B-6X1']
New Line.262293330 Phases= 3 Bus1=262293327.1.2.3 Bus2=254443398.1.2.3 Length=33.96  units=m  Spacing=8'-ARM-NON-CENTER-POST-3PH wires=['2-ACSR-B-6X1' '2-ACSR-B-6X1' '2-ACSR-B-6X1' '2-ACSR-B-6X1']
New Line.262293307 Phases= 1 Bus1=254438378.2     Bus2=262293309.2     Length=1.52   units=m  Spacing=VERTICAL-1-PH-60-1PH wires=['2-ACSR-B-6X1' '2-ACSR-B-6X1']
New Line.262293495 Phases= 1 Bus1=262293492.1     Bus2=254444379.1     Length=19.96  units=m  Spacing=VERTICAL-1-PH-60-1PH wires=['2-ACSR-B-6X1' '2-ACSR-B-6X1']
New Line.624621151 Phases= 3 Bus1=624621148.1.2.3 Bus2=254443445.1.2.3 Length=67.59  units=m  Spacing=8'-ARM-NON-CENTER-POST-3PH wires=['1/0-ACSR-B-6X1' '1/0-ACSR-B-6X1' '1/0-ACSR-B-6X1' '1/0-ACSR-B-6X1']
New Line.262292103 Bus1=262292100.1     Bus2=260116139.1     LineCode=1/0-AL-TRXLPELCJ-25KV Phases= 1 Length=72.01  units=m enable=yes
New Line.263618786 Bus1=263618783.1.2.3 Bus2=260932428.1.2.3 LineCode=1/0-AL-TRXLPELCJ-25KV Phases= 3 Length=102.70 units=m enable=yes
New Line.254437205 Phases= 1 Bus1=254437202.2     Bus2=254437207.2     Length=111.90 units=m  Spacing=VERTICAL-1-PH-60-1PH wires=['1/0-ACSR-B-6X1' '1/0-ACSR-B-6X1']
New Line.262290732 Bus1=262290729.3     Bus2=260115305.3     LineCode=1/0-AL-HMWPECN-25KV Phases= 1 Length=21.31  units=m enable=yes
New Line.254438331 Phases= 3 Bus1=254438328.1.2.3 Bus2=254438333.1.2.3 Length=62.28  units=m  Spacing=8'-ARM-NON-CENTER-POST-3PH wires=['1/0-ACSR-B-6X1' '1/0-ACSR-B-6X1' '1/0-ACSR-B-6X1' '1/0-ACSR-B-6X1']
New Line.624621428 Phases= 3 Bus1=254433391.1.2.3 Bus2=624621426.1.2.3 Length=19.23  units=m  Spacing=HORIZ-LINE-POST-3PH wires=['336-ACSR-B-18X1' '336-ACSR-B-18X1' '336-ACSR-B-18X1' '1/0-ACSR-B-6X1']
New Line.624564716 Phases= 3 Bus1=254443274.1.2.3 Bus2=624564714.1.2.3 Length=19.26  units=m  Spacing=8'-ARM-NON-CENTER-POST-3PH wires=['4-ACSR-B-6X1' '4-ACSR-B-6X1' '4-ACSR-B-6X1' '4-ACSR-B-6X1']
New Line.254437877 Phases= 3 Bus1=254437874.1.2.3 Bus2=254437879.1.2.3 Length=72.56  units=m  Spacing=8'-ARM-NON-CENTER-POST-3PH wires=['4-ACSR-B-6X1' '4-ACSR-B-6X1' '1/0-ACSR-B-6X1' '2-ACSR-B-6X1']
New Line.254444152 Phases= 3 Bus1=254444075.1.2.3 Bus2=254444154.1.2.3 Length=80.92  units=m  Spacing=8'-ARM-NON-CENTER-POST-3PH wires=['1/0-ACSR-B-6X1' '1/0-ACSR-B-6X1' '1/0-ACSR-B-6X1' '1/0-ACSR-B-6X1']
New Line.254433468 Phases= 1 Bus1=254433465.2     Bus2=254433470.2     Length=51.51  units=m  Spacing=VERTICAL-1-PH-60-1PH wires=['2-ACSR-B-6X1' '2-ACSR-B-6X1']
New Line.483410730 Phases= 3 Bus1=254443353.1.2.3 Bus2=254443358.1.2.3 Length=15.45  units=m  Spacing=8'-ARM-NON-CENTER-POST-3PH wires=['2-ACSR-B-6X1' '2-ACSR-B-6X1' '2-ACSR-B-6X1' '2-ACSR-B-6X1']
!New Line.254432406 Phases= 3 Bus1=254432403.1.2.3 Bus2=254432408.1.2.3 Length=22.29  units=m  Spacing=8'-ARM-NON-CENTER-POST-3PH wires=['336-ACSR-B-18X1' '336-ACSR-B-18X1' '336-ACSR-B-18X1' '1/0-ACSR-B-6X1']
New Line.254433431 Phases= 3 Bus1=254433423.1.2.3 Bus2=254433433.1.2.3 Length=59.09  units=m  Spacing=8'-ARM-NON-CENTER-POST-3PH wires=['336-ACSR-B-18X1' '336-ACSR-B-18X1' '336-ACSR-B-18X1' '1/0-ACSR-B-6X1']
New Line.624620857 Phases= 2 Bus1=624620854.1.2   Bus2=254444414.1.2   Length=27.30  units=m  Spacing=HORIZ-LINE-POST-2PH wires=['1/0-ACSR-WP-6X1' '1/0-ACSR-WP-6X1' '1/0-ACSR-WP-6X1']
New Line.254443455 Phases= 3 Bus1=254443450.1.2.3 Bus2=254443457.1.2.3 Length=58.00  units=m  Spacing=8'-ARM-NON-CENTER-POST-3PH wires=['1/0-ACSR-B-6X1' '1/0-ACSR-B-6X1' '1/0-ACSR-B-6X1' '1/0-ACSR-B-6X1']
New Line.254443403 Phases= 3 Bus1=254443393.1.2.3 Bus2=254443405.1.2.3 Length=125.70 units=m  Spacing=8'-ARM-NON-CENTER-POST-3PH wires=['4-ACSR-B-6X1' '4-ACSR-B-6X1' '4-ACSR-B-6X1' '4-ACSR-B-6X1']
New Line.483410884 Bus1=260115263.1     Bus2=260115268.1     LineCode=1/0-AL-HMWPECN-25KV Phases= 1 Length=340.20 units=m enable=yes
New Line.262293316 Phases= 1 Bus1=254438160.2     Bus2=262293318.2     Length=1.52   units=m  Spacing=VERTICAL-1-PH-60-1PH wires=['2-ACSR-B-6X1' '2-ACSR-B-6X1']
New Line.254443789 Phases= 1 Bus1=254443786.3     Bus2=254443791.3     Length=28.13  units=m  Spacing=VERTICAL-1-PH-60-1PH wires=['2-ACSR-B-6X1' '2-ACSR-B-6X1']
New Line.254443391 Phases= 3 Bus1=254443358.1.2.3 Bus2=254443393.1.2.3 Length=48.52  units=m  Spacing=8'-ARM-NON-CENTER-POST-3PH wires=['4-ACSR-B-6X1' '4-ACSR-B-6X1' '4-ACSR-B-6X1' '4-ACSR-B-6X1']
New Line.262293370 Bus1=254443619.1.2.3 Bus2=262293372.1.2.3 LineCode=1/0-AL-HMWPECN-25KV Phases= 3 Length=1.52   units=m enable=yes
New Line.620619094 Phases= 1 Bus1=620619091.3     Bus2=254443519.3     Length=8.76   units=m  Spacing=VERTICAL-1-PH-60-1PH wires=['2-ACSR-B-6X1' '2-ACSR-B-6X1']
New Line.254433267 Phases= 3 Bus1=254433264.1.2.3 Bus2=254433269.1.2.3 Length=17.21  units=m  Spacing=8'-ARM-NON-CENTER-POST-3PH wires=['336-ACSR-B-18X1' '336-ACSR-B-18X1' '336-ACSR-B-18X1' '336-ACSR-B-18X1']
New Line.699304551 Phases= 3 Bus1=254438059.1.2.3 Bus2=699304549.1.2.3 Length=18.73  units=m  Spacing=8'-ARM-NON-CENTER-POST-3PH wires=['1/0-ACSR-B-6X1' '1/0-ACSR-B-6X1' '1/0-ACSR-B-6X1' '2-ACSR-B-6X1']
New Line.695134977 Phases= 3 Bus1=624619112.1.2.3 Bus2=695134975.1.2.3 Length=21.79  units=m  Spacing=HORIZ-LINE-POST-3PH wires=['336-ACSR-B-18X1' '336-ACSR-B-18X1' '336-ACSR-B-18X1' '1/0-ACSR-B-6X1']
New Line.254438551 Phases= 1 Bus1=254438538.3     Bus2=254438553.3     Length=35.09  units=m  Spacing=VERTICAL-1-PH-60-1PH wires=['2-ACSR-B-6X1' '2-ACSR-B-6X1']
New Line.254444046 Phases= 3 Bus1=254444043.1.2.3 Bus2=254444048.1.2.3 Length=20.26  units=m  Spacing=8'-ARM-NON-CENTER-POST-3PH wires=['1/0-CU-TBWP-7' '1/0-CU-TBWP-7' '1/0-CU-TBWP-7' '1/0-CU-TBWP-7']
New Line.483410574 Phases= 1 Bus1=254438269.2     Bus2=483410576.2     Length=60.67  units=m  Spacing=VERTICAL-1-PH-104-1PH wires=['2-ACSR-B-6X1' '2-ACSR-B-6X1']
New Line.262291923 Phases= 1 Bus1=262291920.2     Bus2=254437919.2     Length=68.50  units=m  Spacing=VERTICAL-1-PH-60-1PH wires=['4-ACSR-B-6X1' '4-ACSR-B-6X1']
New Line.624565666 Phases= 3 Bus1=624565663.1.2.3 Bus2=254443911.1.2.3 Length=30.74  units=m  Spacing=8'-ARM-NON-CENTER-POST-3PH wires=['1/0-CU-TBWP-7' '1/0-CU-TBWP-7' '1/0-CU-TBWP-7' '1/0-CU-TBWP-7']
New Line.262291833 Phases= 1 Bus1=262291830.1     Bus2=254437705.1     Length=123.10 units=m  Spacing=VERTICAL-1-PH-60-1PH wires=['2-ACSR-B-6X1' '2-ACSR-B-6X1']
New Line.264030168 Phases= 1 Bus1=254438234.1     Bus2=264030170.1     Length=1.53   units=m  Spacing=VERTICAL-1-PH-60-1PH wires=['2-ACSR-B-6X1' '2-ACSR-B-6X1']
New Line.254437892 Phases= 3 Bus1=254437889.1.2.3 Bus2=254437894.1.2.3 Length=36.37  units=m  Spacing=8'-ARM-NON-CENTER-POST-3PH wires=['4-ACSR-B-6X1' '4-ACSR-B-6X1' '1/0-ACSR-B-6X1' '2-ACSR-B-6X1']
New Line.259112299 Phases= 3 Bus1=254433427.1.2.3 Bus2=259112301.1.2.3 Length=33.64  units=m  Spacing=8'-ARM-STANDARD-3PH wires=['1/0-ACSR-B-6X1' '1/0-ACSR-B-6X1' '1/0-ACSR-B-6X1' '1/0-ACSR-B-6X1']
New Line.699304452 Phases= 3 Bus1=254438177.1.2.3 Bus2=699304450.1.2.3 Length=32.80  units=m  Spacing=8'-ARM-NON-CENTER-POST-3PH wires=['4-ACSR-B-6X1' '4-ACSR-B-6X1' '4-ACSR-B-6X1' '4-ACSR-B-6X1']
New Line.254437569 Phases= 1 Bus1=254437566.3     Bus2=254437571.3     Length=66.36  units=m  Spacing=VERTICAL-1-PH-60-1PH wires=['2-ACSR-B-6X1' '2-ACSR-B-6X1']
New Line.264195146 Bus1=260115283.2     Bus2=264195144.2     LineCode=1/0-AL-HMWPECN-25KV Phases= 1 Length=109.60 units=m enable=yes
New Line.274928412 Phases= 1 Bus1=262291902.2     Bus2=254437847.2     Length=83.97  units=m  Spacing=VERTICAL-1-PH-60-1PH wires=['2-ACSR-B-6X1' '2-ACSR-B-6X1']
New Line.624542487 Phases= 1 Bus1=624542474.3     Bus2=624542485.3     Length=16.39  units=m  Spacing=VERTICAL-1-PH-60-1PH wires=['4-ACSR-B-6X1' '4-ACSR-B-6X1']
New Line.624542880 Phases= 1 Bus1=624542877.1     Bus2=254438423.1     Length=181.10 units=m  Spacing=VERTICAL-1-PH-60-1PH wires=['2-ACSR-B-6X1' '2-ACSR-B-6X1']
New Line.262293312 Phases= 1 Bus1=262293309.2     Bus2=254443209.2     Length=142.60 units=m  Spacing=VERTICAL-1-PH-60-1PH wires=['2-ACSR-B-6X1' '2-ACSR-B-6X1']
New Line.620618939 Phases= 3 Bus1=254443549.1.2.3 Bus2=620618937.1.2.3 Length=41.70  units=m  Spacing=8'-ARM-NON-CENTER-POST-3PH wires=['1/0-ACSR-B-6X1' '1/0-ACSR-B-6X1' '1/0-ACSR-B-6X1' '1/0-ACSR-B-6X1']
New Line.260116786 Bus1=260116787.1.2.3 Bus2=260116788.1.2.3 LineCode=1/0-AL-HMWPECN-25KV Phases= 3 Length=25.14  units=m enable=yes
New Line.254444259 Phases= 1 Bus1=254444256.1     Bus2=254444261.1     Length=45.09  units=m  Spacing=VERTICAL-1-PH-60-1PH wires=['1/0-ACSR-B-6X1' '1/0-ACSR-B-6X1']
New Line.264266475 Bus1=260854005.1.2.3 Bus2=264266473.1.2.3 LineCode=1/0-AL-TRXLPELCJ-25KV Phases= 3 Length=193.20 units=m enable=yes
New Line.254437683 Phases= 3 Bus1=254437680.1.2.3 Bus2=254437685.1.2.3 Length=41.16  units=m  Spacing=8'-ARM-NON-CENTER-POST-3PH wires=['4-ACSR-B-6X1' '4-ACSR-B-6X1' '1/0-ACSR-B-6X1' '2-ACSR-B-6X1']
New Line.254438141 Phases= 1 Bus1=254438138.1     Bus2=254438143.1     Length=17.38  units=m  Spacing=VERTICAL-1-PH-60-1PH wires=['2-ACSR-B-6X1' '2-ACSR-B-6X1']
New Line.254437922 Phases= 1 Bus1=254437919.2     Bus2=254437924.2     Length=191.60 units=m  Spacing=VERTICAL-1-PH-60-1PH wires=['4-ACSR-B-6X1' '4-ACSR-B-6X1']
New Line.260115313 Bus1=260115310.3     Bus2=260115315.3     LineCode=1/0-AL-HMWPECN-25KV Phases= 1 Length=101.60 units=m enable=yes
New Line.624622044 Phases= 3 Bus1=MOCKSVILLE_MN_03552403_REG.1.2.3 Bus2=624622042.1.2.3 Length=13.83  units=m  Spacing=8'-ARM-NON-CENTER-POST-3PH wires=['336-ACSR-B-18X1' '336-ACSR-B-18X1' '336-ACSR-B-18X1' '1/0-ACSR-B-6X1']
New Line.254438099 Phases= 3 Bus1=254438096.1.2.3 Bus2=254438101.1.2.3 Length=26.75  units=m  Spacing=8'-ARM-NON-CENTER-POST-3PH wires=['1/0-ACSR-B-6X1' '1/0-ACSR-B-6X1' '1/0-ACSR-B-6X1' '2-ACSR-B-6X1']
New Line.254438581 Phases= 3 Bus1=254438578.1.2.3 Bus2=254438583.1.2.3 Length=29.56  units=m  Spacing=8'-ARM-NON-CENTER-POST-3PH wires=['1/0-ACSR-B-6X1' '1/0-ACSR-B-6X1' '1/0-ACSR-B-6X1' '1/0-ACSR-B-6X1']
New Line.624565702 Phases= 3 Bus1=624565699.1.2.3 Bus2=254443901.1.2.3 Length=21.97  units=m  Spacing=8'-ARM-NON-CENTER-POST-3PH wires=['1/0-CU-TBWP-7' '1/0-CU-TBWP-7' '1/0-CU-TBWP-7' '1/0-CU-TBWP-7']
New Line.624620868 Phases= 2 Bus1=624620865.1.2   Bus2=624620854.1.2   Length=19.86  units=m  Spacing=HORIZ-LINE-POST-2PH wires=['1/0-ACSR-WP-6X1' '1/0-ACSR-WP-6X1' '1/0-ACSR-WP-6X1']
New Line.254444372 Phases= 1 Bus1=254444369.1     Bus2=254444374.1     Length=58.70  units=m  Spacing=VERTICAL-1-PH-60-1PH wires=['2-ACSR-B-6X1' '2-ACSR-B-6X1']
New Line.624542679 Phases= 3 Bus1=624542676.1.2.3 Bus2=254438568.1.2.3 Length=92.43  units=m  Spacing=8'-ARM-NON-CENTER-POST-3PH wires=['1/0-ACSR-B-6X1' '1/0-ACSR-B-6X1' '1/0-ACSR-B-6X1' '1/0-ACSR-B-6X1']
New Line.624621757 Phases= 2 Bus1=254433074.1.2   Bus2=624621755.1.2   Length=20.49  units=m  Spacing=HORIZ-LINE-POST-2PH wires=['1/0-ACSR-WP-6X1' '1/0-ACSR-WP-6X1' '1/0-ACSR-WP-6X1']
New Line.274935531 Phases= 1 Bus1=263695014.2     Bus2=254443943.2     Length=112.50 units=m  Spacing=VERTICAL-1-PH-60-1PH wires=['2-ACSR-B-6X1' '2-ACSR-B-6X1']
New Line.254437296 Phases= 2 Bus1=254437293.1.2   Bus2=254437298.1.2   Length=98.94  units=m  Spacing=8'-ARM-STANDARD-2PH wires=['2-ACSR-B-6X1' '2-ACSR-B-6X1' '2-ACSR-B-6X1']
New Line.624565477 Phases= 1 Bus1=254443998.2     Bus2=624565475.2     Length=47.92  units=m  Spacing=VERTICAL-1-PH-60-1PH wires=['1/0-ACSR-WP-6X1' '1/0-ACSR-WP-6X1']
New Line.254443657 Phases= 3 Bus1=254443654.1.2.3 Bus2=254443659.1.2.3 Length=32.53  units=m  Spacing=8'-ARM-NON-CENTER-POST-3PH wires=['1/0-ACSR-B-6X1' '1/0-ACSR-B-6X1' '1/0-ACSR-B-6X1' '1/0-ACSR-B-6X1']
New Line.254443470 Phases= 3 Bus1=254443462.1.2.3 Bus2=254443472.1.2.3 Length=24.42  units=m  Spacing=8'-ARM-NON-CENTER-POST-3PH wires=['1/0-ACSR-B-6X1' '1/0-ACSR-B-6X1' '1/0-ACSR-B-6X1' '1/0-ACSR-B-6X1']
New Line.482826985 Phases= 3 Bus1=482826983.1.2.3 Bus2=254437434.1.2.3 Length=30.54  units=m  Spacing=8'-ARM-NON-CENTER-POST-3PH wires=['1/0-ACSR-B-6X1' '1/0-ACSR-B-6X1' '1/0-ACSR-B-6X1' '2-ACSR-B-6X1']
New Line.254437718 Phases= 3 Bus1=254437700.1.2.3 Bus2=254437720.1.2.3 Length=160.20 units=m  Spacing=8'-ARM-NON-CENTER-POST-3PH wires=['4-ACSR-B-6X1' '4-ACSR-B-6X1' '1/0-ACSR-B-6X1' '2-ACSR-B-6X1']
New Line.262291788 Phases= 1 Bus1=262291785.3     Bus2=254437561.3     Length=119.20 units=m  Spacing=VERTICAL-1-PH-60-1PH wires=['2-ACSR-B-6X1' '2-ACSR-B-6X1']
New Line.254444182 Phases= 2 Bus1=254444179.1.2   Bus2=254444184.1.2   Length=58.45  units=m  Spacing=8'-ARM-STANDARD-2PH wires=['1/0-ACSR-B-6X1' '1/0-ACSR-B-6X1' '1/0-ACSR-B-6X1']
New Line.482826785 Phases= 3 Bus1=254443731.1.2.3 Bus2=254443741.1.2.3 Length=35.51  units=m  Spacing=8'-ARM-NON-CENTER-POST-3PH wires=['1/0-ACSR-B-6X1' '1/0-ACSR-B-6X1' '1/0-ACSR-B-6X1' '2-ACSR-B-6X1']
New Line.624619099 Phases= 3 Bus1=254433386.1.2.3 Bus2=624619097.1.2.3 Length=8.13   units=m  Spacing=HORIZ-LINE-POST-3PH wires=['336-ACSR-B-18X1' '336-ACSR-B-18X1' '336-ACSR-B-18X1' '1/0-ACSR-B-6X1']
New Line.262291752 Phases= 3 Bus1=262291749.1.2.3 Bus2=254443891.1.2.3 Length=22.40  units=m  Spacing=8'-ARM-NON-CENTER-POST-3PH wires=['1/0-CU-TBWP-7' '1/0-CU-TBWP-7' '1/0-CU-TBWP-7' '1/0-CU-TBWP-7']
New Line.254438094 Phases= 3 Bus1=254438089.1.2.3 Bus2=254438096.1.2.3 Length=31.08  units=m  Spacing=8'-ARM-NON-CENTER-POST-3PH wires=['1/0-ACSR-B-6X1' '1/0-ACSR-B-6X1' '1/0-ACSR-B-6X1' '2-ACSR-B-6X1']
New Line.262291810 Phases= 1 Bus1=254437658.2     Bus2=262291812.2     Length=1.52   units=m  Spacing=VERTICAL-1-PH-60-1PH wires=['2-ACSR-B-6X1' '2-ACSR-B-6X1']
New Line.624621612 Phases= 3 Bus1=624621603.1.2.3 Bus2=624621610.1.2.3 Length=114.10 units=m  Spacing=8'-ARM-NON-CENTER-POST-3PH wires=['336-ACSR-B-18X1' '336-ACSR-B-18X1' '336-ACSR-B-18X1' '336-ACSR-B-18X1']
New Line.262291770 Phases= 1 Bus1=262291767.3     Bus2=254437505.3     Length=1.00   units=m  Spacing=VERTICAL-1-PH-60-1PH wires=['2-ACSR-B-6X1' '2-ACSR-B-6X1']
New Line.254437594 Phases= 3 Bus1=254437591.1.2.3 Bus2=254437596.1.2.3 Length=103.60 units=m  Spacing=8'-ARM-NON-CENTER-POST-3PH wires=['4-ACSR-B-6X1' '4-ACSR-B-6X1' '1/0-ACSR-B-6X1' '2-ACSR-B-6X1']
New Line.260932427 Bus1=260932428.1.2.3 Bus2=260854010.1.2.3 LineCode=1/0-AL-TRXLPELCJ-25KV Phases= 3 Length=264.70 units=m enable=yes
New Line.624565421 Phases= 1 Bus1=624565418.2     Bus2=254443953.2     Length=14.81  units=m  Spacing=VERTICAL-1-PH-60-1PH wires=['2-ACSR-B-6X1' '2-ACSR-B-6X1']
New Line.254437862 Phases= 3 Bus1=254437857.1.2.3 Bus2=254437864.1.2.3 Length=165.20 units=m  Spacing=8'-ARM-NON-CENTER-POST-3PH wires=['4-ACSR-B-6X1' '4-ACSR-B-6X1' '1/0-ACSR-B-6X1' '2-ACSR-B-6X1']
New Line.260115196 Bus1=260115193.1     Bus2=260115197.1     LineCode=1/0-AL-HMWPECN-25KV Phases= 1 Length=124.40 units=m enable=yes
New Line.254444167 Phases= 1 Bus1=254444164.2     Bus2=254444169.2     Length=26.73  units=m  Spacing=VERTICAL-1-PH-60-1PH wires=['2-ACSR-B-6X1' '2-ACSR-B-6X1']
New Line.260115318 Bus1=260115315.3     Bus2=260115320.3     LineCode=1/0-AL-HMWPECN-25KV Phases= 1 Length=91.55  units=m enable=yes
New Line.262291819 Phases= 1 Bus1=254437680.2     Bus2=262291821.2     Length=1.52   units=m  Spacing=VERTICAL-1-PH-60-1PH wires=['4-ACSR-B-6X1' '4-ACSR-B-6X1']
New Line.262292031 Phases= 1 Bus1=262292028.1     Bus2=254438207.1     Length=84.46  units=m  Spacing=VERTICAL-1-PH-60-1PH wires=['1/0-ACSR-B-6X1' '1/0-ACSR-B-6X1']
New Line.264569528 Phases= 1 Bus1=264569525.3     Bus2=254443841.3     Length=60.22  units=m  Spacing=VERTICAL-1-PH-60-1PH wires=['2-ACSR-B-6X1' '2-ACSR-B-6X1']
New Line.624564230 Phases= 1 Bus1=254437606.2     Bus2=624564228.2     Length=57.24  units=m  Spacing=VERTICAL-1-PH-60-1PH wires=['4-ACSR-B-6X1' '4-ACSR-B-6X1']
New Line.254444499 Phases= 3 Bus1=254444496.1.2.3 Bus2=254444501.1.2.3 Length=85.49  units=m  Spacing=8'-ARM-NON-CENTER-POST-3PH wires=['2-ACSR-B-6X1' '2-ACSR-B-6X1' '2-ACSR-B-6X1' '2-ACSR-B-6X1']
New Line.624621705 Phases= 3 Bus1=264400564.1.2.3 Bus2=624621703.1.2.3 Length=8.16   units=m  Spacing=8'-ARM-NON-CENTER-POST-3PH wires=['336-ACSR-B-18X1' '336-ACSR-B-18X1' '336-ACSR-B-18X1' '1/0-ACSR-B-6X1']
New Line.259538276 Phases= 3 Bus1=254438279.1.2.3 Bus2=254438283.1.2.3 Length=30.15  units=m  Spacing=8'-ARM-NON-CENTER-POST-3PH wires=['1/0-ACSR-B-6X1' '1/0-ACSR-B-6X1' '1/0-ACSR-B-6X1' '2-ACSR-B-6X1']
New Line.624564577 Phases= 3 Bus1=624564574.1.2.3 Bus2=254437429.1.2.3 Length=53.57  units=m  Spacing=8'-ARM-NON-CENTER-POST-3PH wires=['1/0-ACSR-B-6X1' '1/0-ACSR-B-6X1' '1/0-ACSR-B-6X1' '2-ACSR-B-6X1']
New Line.624563713 Phases= 3 Bus1=624563710.1.2.3 Bus2=254433413.1.2.3 Length=15.26  units=m  Spacing=HORIZ-LINE-POST-3PH wires=['336-ACSR-B-18X1' '336-ACSR-B-18X1' '336-ACSR-B-18X1' '1/0-ACSR-B-6X1']
New Line.263618781 Bus1=259103906.1.2.3 Bus2=263618783.1.2.3 LineCode=1/0-AL-TRXLPELCJ-25KV Phases= 3 Length=1.52   units=m enable=yes
New Line.264532963 Phases= 3 Bus1=254444501.1.2.3 Bus2=264532965.1.2.3 Length=1.53   units=m  Spacing=8'-ARM-NON-CENTER-POST-3PH wires=['2-ACSR-B-6X1' '2-ACSR-B-6X1' '2-ACSR-B-6X1' '2-ACSR-B-6X1']
New Line.482826860 Phases= 1 Bus1=482826856.3     Bus2=254443751.3     Length=39.10  units=m  Spacing=VERTICAL-1-PH-60-1PH wires=['1/0-ACSR-B-6X1' '1/0-ACSR-B-6X1']
New Line.620619389 Phases= 3 Bus1=620619386.1.2.3 Bus2=254443477.1.2.3 Length=45.51  units=m  Spacing=8'-ARM-NON-CENTER-POST-3PH wires=['1/0-ACSR-B-6X1' '1/0-ACSR-B-6X1' '1/0-ACSR-B-6X1' '1/0-ACSR-B-6X1']
New Line.624564043 Phases= 3 Bus1=624564040.1.2.3 Bus2=254444496.1.2.3 Length=18.85  units=m  Spacing=8'-ARM-NON-CENTER-POST-3PH wires=['336-ACSR-B-18X1' '336-ACSR-B-18X1' '336-ACSR-B-18X1' '1/0-ACSR-B-6X1']
New Line.624566080 Phases= 1 Bus1=624566077.1     Bus2=254444246.1     Length=18.50  units=m  Spacing=VERTICAL-1-PH-60-1PH wires=['1/0-ACSR-B-6X1' '1/0-ACSR-B-6X1']
New Line.263934659 Bus1=263934656.2     Bus2=261212943.2     LineCode=1/0-AL-TRXLPELCJ-25KV Phases= 1 Length=124.50 units=m enable=yes
New Line.624621454 Phases= 3 Bus1=624621441.1.2.3 Bus2=624621452.1.2.3 Length=27.64  units=m  Spacing=HORIZ-LINE-POST-3PH wires=['336-ACSR-B-18X1' '336-ACSR-B-18X1' '336-ACSR-B-18X1' '1/0-ACSR-B-6X1']
New Line.624542488 Phases= 1 Bus1=624542485.3     Bus2=254438543.3     Length=17.56  units=m  Spacing=VERTICAL-1-PH-60-1PH wires=['4-ACSR-B-6X1' '4-ACSR-B-6X1']
New Line.263639624 Bus1=263639621.1.2.3 Bus2=260116778.1.2.3 LineCode=1/0-AL-HMWPECN-25KV Phases= 3 Length=90.09  units=m enable=yes
New Line.624542040 Phases= 3 Bus1=624542037.1.2.3 Bus2=254438201.1.2.3 Length=44.59  units=m  Spacing=8'-ARM-NON-CENTER-POST-3PH wires=['4-ACSR-B-6X1' '4-ACSR-B-6X1' '4-ACSR-B-6X1' '4-ACSR-B-6X1']
New Line.254437902 Phases= 3 Bus1=254437894.1.2.3 Bus2=254437904.1.2.3 Length=57.84  units=m  Spacing=8'-ARM-NON-CENTER-POST-3PH wires=['4-ACSR-B-6X1' '4-ACSR-B-6X1' '1/0-ACSR-B-6X1' '2-ACSR-B-6X1']
New Line.263664420 Phases= 3 Bus1=254437217.1.2.3 Bus2=263664422.1.2.3 Length=1.52   units=m  Spacing=8'-ARM-NON-CENTER-POST-3PH wires=['336-ACSR-B-18X1' '336-ACSR-B-18X1' '336-ACSR-B-18X1' '1/0-ACSR-B-6X1']
New Line.624540751 Phases= 2 Bus1=624540748.1.2   Bus2=254433120.1.2   Length=34.31  units=m  Spacing=8'-ARM-STANDARD-2PH wires=['1/0-ACSR-B-6X1' '1/0-ACSR-B-6X1' '1/0-ACSR-B-6X1']
New Line.620619507 Phases= 3 Bus1=620619504.1.2.3 Bus2=254443694.1.2.3 Length=47.33  units=m  Spacing=8'-ARM-NON-CENTER-POST-3PH wires=['1/0-ACSR-B-6X1' '1/0-ACSR-B-6X1' '1/0-ACSR-B-6X1' '1/0-ACSR-B-6X1']
New Line.624563986 Phases= 1 Bus1=624563983.1     Bus2=254444434.1     Length=28.00  units=m  Spacing=VERTICAL-1-PH-60-1PH wires=['4-ACSR-B-6X1' '4-ACSR-B-6X1']
New Line.254437800 Phases= 3 Bus1=254437797.1.2.3 Bus2=254437802.1.2.3 Length=75.50  units=m  Spacing=8'-ARM-STANDARD-3PH wires=['2-ACSR-B-6X1' '2-ACSR-B-6X1' '2-ACSR-B-6X1' '2-ACSR-B-6X1']
New Line.262291941 Phases= 1 Bus1=262291938.2     Bus2=254437964.2     Length=100.10 units=m  Spacing=VERTICAL-1-PH-60-1PH wires=['1/0-ACSR-B-6X1' '1/0-ACSR-B-6X1']
New Line.254433232 Phases= 1 Bus1=254433229.2     Bus2=254433234.2     Length=48.89  units=m  Spacing=VERTICAL-1-PH-60-1PH wires=['1/0-ACSR-B-6X1' '1/0-ACSR-B-6X1']
New Line.260115176 Bus1=260115173.1     Bus2=260115178.1     LineCode=1/0-AL-HMWPECN-25KV Phases= 1 Length=68.30  units=m enable=yes
New Line.254438536 Phases= 3 Bus1=254438533.1.2.3 Bus2=254438538.1.2.3 Length=76.51  units=m  Spacing=8'-ARM-NON-CENTER-POST-3PH wires=['1/0-ACSR-B-6X1' '1/0-ACSR-B-6X1' '1/0-ACSR-B-6X1' '1/0-ACSR-B-6X1']
New Line.254443981 Phases= 3 Bus1=254443978.1.2.3 Bus2=254443983.1.2.3 Length=50.32  units=m  Spacing=8'-ARM-NON-CENTER-POST-3PH wires=['1/0-CU-TBWP-7' '1/0-CU-TBWP-7' '1/0-CU-TBWP-7' '1/0-CU-TBWP-7']
New Line.624540008 Phases= 1 Bus1=254433294.3     Bus2=624540006.3     Length=90.04  units=m  Spacing=VERTICAL-1-PH-60-1PH wires=['1/0-ACSR-B-6X1' '1/0-ACSR-B-6X1']
New Line.254443936 Phases= 3 Bus1=254443933.1.2.3 Bus2=254443938.1.2.3 Length=47.91  units=m  Spacing=8'-ARM-NON-CENTER-POST-3PH wires=['1/0-CU-TBWP-7' '1/0-CU-TBWP-7' '1/0-CU-TBWP-7' '1/0-CU-TBWP-7']
New Line.254444110 Phases= 3 Bus1=254444107.1.2.3 Bus2=254444112.1.2.3 Length=37.80  units=m  Spacing=8'-ARM-NON-CENTER-POST-3PH wires=['1/0-ACSR-B-6X1' '1/0-ACSR-B-6X1' '1/0-ACSR-B-6X1' '1/0-ACSR-B-6X1']
New Line.254433077 Phases= 3 Bus1=254433069.1.2.3 Bus2=254433079.1.2.3 Length=27.41  units=m  Spacing=8'-ARM-NON-CENTER-POST-3PH wires=['336-ACSR-B-18X1' '336-ACSR-B-18X1' '336-ACSR-B-18X1' '336-ACSR-B-18X1']
New Line.262290718 Phases= 1 Bus1=254433284.3     Bus2=262290720.3     Length=1.52   units=m  Spacing=VERTICAL-1-PH-60-1PH wires=['1/0-ACSR-B-6X1' '1/0-ACSR-B-6X1']
New Line.624564576 Phases= 3 Bus1=254437424.1.2.3 Bus2=624564574.1.2.3 Length=34.64  units=m  Spacing=8'-ARM-NON-CENTER-POST-3PH wires=['1/0-ACSR-B-6X1' '1/0-ACSR-B-6X1' '1/0-ACSR-B-6X1' '2-ACSR-B-6X1']
New Line.262292017 Bus1=254438197.2     Bus2=262292019.2     LineCode=1/0-AL-TRXLPELCJ-25KV Phases= 1 Length=1.52   units=m enable=yes
New Line.254437215 Phases= 3 Bus1=254437212.1.2.3 Bus2=254437217.1.2.3 Length=69.01  units=m  Spacing=HORIZ-LINE-POST-3PH wires=['336-ACSR-B-18X1' '336-ACSR-B-18X1' '336-ACSR-B-18X1' '1/0-ACSR-B-6X1']
New Line.254443859 Phases= 1 Bus1=254443856.3     Bus2=254443861.3     Length=70.80  units=m  Spacing=VERTICAL-1-PH-60-1PH wires=['2-ACSR-B-6X1' '2-ACSR-B-6X1']
New Line.254437393 Phases= 3 Bus1=254437385.1.2.3 Bus2=254437395.1.2.3 Length=28.31  units=m  Spacing=8'-ARM-NON-CENTER-POST-3PH wires=['2-ACSR-B-6X1' '2-ACSR-B-6X1' '2-ACSR-B-6X1' '2-ACSR-B-6X1']
New Line.254466644 Phases= 3 Bus1=254466641.1.2.3 Bus2=254466646.1.2.3 Length=21.00  units=m  Spacing=8'-ARM-NON-CENTER-POST-3PH wires=['2-ACSR-B-6X1' '2-ACSR-B-6X1' '2-ACSR-B-6X1' '2-ACSR-B-6X1']
New Line.262293445 Bus1=254444053.1.2.3 Bus2=262293447.1.2.3 LineCode=1/0-AL-HMWPECN-25KV Phases= 3 Length=1.53   units=m enable=yes
New Line.254443607 Phases= 3 Bus1=254443604.1.2.3 Bus2=254443609.1.2.3 Length=35.53  units=m  Spacing=8'-ARM-NON-CENTER-POST-3PH wires=['1/0-ACSR-B-6X1' '1/0-ACSR-B-6X1' '1/0-ACSR-B-6X1' '1/0-ACSR-B-6X1']
New Line.624542636 Phases= 1 Bus1=624542633.3     Bus2=275418572.3     Length=60.11  units=m  Spacing=VERTICAL-1-PH-60-1PH wires=['4-ACSR-B-6X1' '4-ACSR-B-6X1']
New Line.254438082 Phases= 1 Bus1=254438079.2     Bus2=254438084.2     Length=160.50 units=m  Spacing=VERTICAL-1-PH-60-1PH wires=['2-ACSR-B-6X1' '2-ACSR-B-6X1']
New Line.259425303 Phases= 3 Bus1=259425300.1.2.3 Bus2=259425305.1.2.3 Length=30.42  units=m  Spacing=8'-ARM-STANDARD-3PH wires=['1/0-ACSR-B-6X1' '1/0-ACSR-B-6X1' '1/0-ACSR-B-6X1' '1/0-ACSR-B-6X1']
New Line.254443232 Phases= 1 Bus1=254443229.2     Bus2=254443234.2     Length=87.03  units=m  Spacing=VERTICAL-1-PH-60-1PH wires=['2-ACSR-B-6X1' '2-ACSR-B-6X1']
New Line.624564855 Phases= 1 Bus1=624564852.3     Bus2=254443786.3     Length=55.82  units=m  Spacing=VERTICAL-1-PH-60-1PH wires=['2-ACSR-B-6X1' '2-ACSR-B-6X1']
New Line.699304543 Phases= 3 Bus1=699304540.1.2.3 Bus2=699304529.1.2.3 Length=30.62  units=m  Spacing=8'-ARM-NON-CENTER-POST-3PH wires=['1/0-ACSR-B-6X1' '1/0-ACSR-B-6X1' '1/0-ACSR-B-6X1' '2-ACSR-B-6X1']
New Line.254443879 Phases= 1 Bus1=254443736.1     Bus2=254443881.1     Length=16.24  units=m  Spacing=NEUTRAL-ON-ARM-1PH wires=['2-ACSR-B-6X1' '2-ACSR-B-6X1']
New Line.254437785 Phases= 3 Bus1=254437782.1.2.3 Bus2=254437787.1.2.3 Length=45.99  units=m  Spacing=8'-ARM-STANDARD-3PH wires=['2-ACSR-B-6X1' '2-ACSR-B-6X1' '2-ACSR-B-6X1' '2-ACSR-B-6X1']
New Line.259143372 Phases= 3 Bus1=259143373.1.2.3 Bus2=254437372.1.2.3 Length=5.96   units=m  Spacing=8'-ARM-NON-CENTER-POST-3PH wires=['336-ACSR-B-18X1' '336-ACSR-B-18X1' '336-ACSR-B-18X1' '1/0-ACSR-B-6X1']
New Line.254438471 Phases= 1 Bus1=254438468.2     Bus2=254438473.2     Length=95.40  units=m  Spacing=VERTICAL-1-PH-60-1PH wires=['2-ACSR-B-6X1' '2-ACSR-B-6X1']
New Line.254437579 Phases= 1 Bus1=254437576.3     Bus2=254437581.3     Length=37.47  units=m  Spacing=VERTICAL-1-PH-60-1PH wires=['2-ACSR-B-6X1' '2-ACSR-B-6X1']
New Line.254444224 Phases= 2 Bus1=254444219.1.2   Bus2=254444226.1.2   Length=28.60  units=m  Spacing=8'-ARM-STANDARD-2PH wires=['1/0-ACSR-B-6X1' '1/0-ACSR-B-6X1' '1/0-ACSR-B-6X1']
New Line.254438386 Phases= 3 Bus1=254438383.1.2.3 Bus2=254438388.1.2.3 Length=105.30 units=m  Spacing=8'-ARM-NON-CENTER-POST-3PH wires=['1/0-ACSR-B-6X1' '1/0-ACSR-B-6X1' '1/0-ACSR-B-6X1' '1/0-ACSR-B-6X1']
New Line.482826506 Phases= 3 Bus1=254444325.1.2.3 Bus2=254444329.1.2.3 Length=22.52  units=m  Spacing=8'-ARM-STANDARD-3PH wires=['1/0-ACSR-B-6X1' '1/0-ACSR-B-6X1' '1/0-ACSR-B-6X1' '1/0-ACSR-B-6X1']
New Line.254443311 Phases= 3 Bus1=254443308.1.2.3 Bus2=254443313.1.2.3 Length=67.51  units=m  Spacing=8'-ARM-NON-CENTER-POST-3PH wires=['4-ACSR-B-6X1' '4-ACSR-B-6X1' '4-ACSR-B-6X1' '4-ACSR-B-6X1']
New Line.263877434 Phases= 3 Bus1=263877431.1.2.3 Bus2=254444330.1.2.3 Length=33.33  units=m  Spacing=8'-ARM-STANDARD-3PH wires=['1/0-ACSR-B-6X1' '1/0-ACSR-B-6X1' '1/0-ACSR-B-6X1' '1/0-ACSR-B-6X1']
New Line.262292157 Bus1=262292154.1     Bus2=260116763.1     LineCode=1/0-AL-HMWPECN-25KV Phases= 1 Length=220.80 units=m enable=yes
New Line.262293415 Phases= 3 Bus1=254443746.1.2.3 Bus2=262293417.1.2.3 Length=0.49   units=m  Spacing=8'-ARM-NON-CENTER-POST-3PH wires=['1/0-ACSR-B-6X1' '1/0-ACSR-B-6X1' '1/0-ACSR-B-6X1' '1/0-ACSR-B-6X1']
New Line.482826897 Phases= 1 Bus1=482826895.3     Bus2=254443831.3     Length=8.46   units=m  Spacing=VERTICAL-1-PH-60-1PH wires=['2-ACSR-B-6X1' '2-ACSR-B-6X1']
New Line.263877933 Bus1=254443634.1.2.3 Bus2=263877935.1.2.3 LineCode=1/0-AL-HMWPECN-25KV Phases= 3 Length=1.51   units=m enable=yes
New Line.254437997 Phases= 1 Bus1=254437994.2     Bus2=254437999.2     Length=133.50 units=m  Spacing=VERTICAL-1-PH-60-1PH wires=['2-ACSR-B-6X1' '2-ACSR-B-6X1']
New Line.264425728 Phases= 1 Bus1=264425725.1     Bus2=254433189.1     Length=88.79  units=m  Spacing=VERTICAL-1-PH-60-1PH wires=['4-ACSR-B-6X1' '4-ACSR-B-6X1']
New Line.264336075 Bus1=264336077.1.2.3 Bus2=261280105.1.2.3 LineCode=1/0-AL-TRXLPELCJ-25KV Phases= 3 Length=1.52   units=m enable=no
New Line.624566309 Phases= 2 Bus1=624566306.1.2   Bus2=254437283.1.2   Length=14.33  units=m  Spacing=8'-ARM-STANDARD-2PH wires=['2-ACSR-B-6X1' '2-ACSR-B-6X1' '2-ACSR-B-6X1']
New Line.254433463 Phases= 1 Bus1=254433460.2     Bus2=254433465.2     Length=34.81  units=m  Spacing=VERTICAL-1-PH-60-1PH wires=['2-ACSR-B-6X1' '2-ACSR-B-6X1']
New Line.254443562 Phases= 3 Bus1=254443554.1.2.3 Bus2=254443564.1.2.3 Length=50.43  units=m  Spacing=8'-ARM-NON-CENTER-POST-3PH wires=['1/0-ACSR-B-6X1' '1/0-ACSR-B-6X1' '1/0-ACSR-B-6X1' '1/0-ACSR-B-6X1']
New Line.254437656 Phases= 3 Bus1=254437653.1.2.3 Bus2=254437658.1.2.3 Length=50.28  units=m  Spacing=8'-ARM-NON-CENTER-POST-3PH wires=['4-ACSR-B-6X1' '4-ACSR-B-6X1' '1/0-ACSR-B-6X1' '2-ACSR-B-6X1']
New Line.699304521 Phases= 3 Bus1=699304518.1.2.3 Bus2=254438106.1.2.3 Length=19.24  units=m  Spacing=8'-ARM-NON-CENTER-POST-3PH wires=['2-ACSR-B-6X1' '2-ACSR-B-6X1' '2-ACSR-B-6X1' '2-ACSR-B-6X1']
New Line.262292076 Phases= 1 Bus1=262292073.1     Bus2=254438363.1     Length=136.30 units=m  Spacing=VERTICAL-1-PH-60-1PH wires=['1/0-ACSR-WP-6X1' '1/0-ACSR-WP-6X1']
New Line.624563618 Phases= 3 Bus1=624563615.1.2.3 Bus2=254433438.1.2.3 Length=8.77   units=m  Spacing=HORIZ-LINE-POST-3PH wires=['336-ACSR-B-18X1' '336-ACSR-B-18X1' '336-ACSR-B-18X1' '1/0-ACSR-B-6X1']
New Line.262292143 Bus1=254438558.3     Bus2=262292145.3     LineCode=1/0-AL-HMWPECN-25KV Phases= 1 Length=1.52   units=m enable=yes
New Line.263973408 Phases= 1 Bus1=263973405.3     Bus2=259499129.3     Length=92.29  units=m  Spacing=VERTICAL-1-PH-104-1PH wires=['1/0-ACSR-B-6X1' '1/0-ACSR-B-6X1']
New Line.254443991 Phases= 3 Bus1=254443992.1.2.3 Bus2=254443993.1.2.3 Length=27.63  units=m  Spacing=8'-ARM-NON-CENTER-POST-3PH wires=['1/0-CU-TBWP-7' '1/0-CU-TBWP-7' '1/0-CU-TBWP-7' '1/0-CU-TBWP-7']
New Line.620187170 Bus1=620187167.1.2.3 Bus2=620187150.1.2.3 LineCode=1/0-AL-TRXLPELCJ-25KV Phases= 3 Length=168.00 units=m enable=yes
New Line.620618967 Phases= 3 Bus1=620618964.1.2.3 Bus2=254443549.1.2.3 Length=10.76  units=m  Spacing=8'-ARM-NON-CENTER-POST-3PH wires=['1/0-ACSR-B-6X1' '1/0-ACSR-B-6X1' '1/0-ACSR-B-6X1' '1/0-ACSR-B-6X1']
New Line.695134989 Phases= 3 Bus1=695134986.1.2.3 Bus2=624619112.1.2.3 Length=2.21   units=m  Spacing=HORIZ-LINE-POST-3PH wires=['336-ACSR-B-18X1' '336-ACSR-B-18X1' '336-ACSR-B-18X1' '1/0-ACSR-B-6X1']
New Line.262293504 Phases= 2 Bus1=262293501.1.2   Bus2=254444347.1.2   Length=61.54  units=m  Spacing=8'-ARM-STANDARD-2PH wires=['2-ACSR-B-6X1' '2-ACSR-B-6X1' '1/0-ACSR-B-6X1']
New Line.254433421 Phases= 3 Bus1=254433418.1.2.3 Bus2=254433423.1.2.3 Length=27.52  units=m  Spacing=HORIZ-LINE-POST-3PH wires=['336-ACSR-B-18X1' '336-ACSR-B-18X1' '336-ACSR-B-18X1' '1/0-ACSR-B-6X1']
New Line.254437708 Phases= 1 Bus1=254437705.1     Bus2=254437710.1     Length=97.13  units=m  Spacing=VERTICAL-1-PH-60-1PH wires=['2-ACSR-B-6X1' '2-ACSR-B-6X1']
New Line.624564145 Phases= 1 Bus1=624564142.1     Bus2=254437636.1     Length=106.90 units=m  Spacing=VERTICAL-1-PH-60-1PH wires=['4-ACSR-B-6X1' '4-ACSR-B-6X1']
New Line.254433252 Phases= 3 Bus1=254433249.1.2.3 Bus2=254433254.1.2.3 Length=16.88  units=m  Spacing=8'-ARM-NON-CENTER-POST-3PH wires=['336-ACSR-B-18X1' '336-ACSR-B-18X1' '336-ACSR-B-18X1' '336-ACSR-B-18X1']
New Line.259328903 Phases= 3 Bus1=259328904.1.2.3 Bus2=254443730.1.2.3 Length=20.40  units=m  Spacing=8'-ARM-NON-CENTER-POST-3PH wires=['2-ACSR-B-6X1' '2-ACSR-B-6X1' '2-ACSR-B-6X1' '1/0-ACSR-B-6X1']
New Line.483410967 Bus1=260115218.1     Bus2=260115223.1     LineCode=1/0-AL-HMWPECN-25KV Phases= 1 Length=181.00 units=m enable=yes
New Line.262292013 Phases= 1 Bus1=262292010.2     Bus2=254438197.2     Length=86.18  units=m  Spacing=VERTICAL-1-PH-60-1PH wires=['4-ACSR-B-6X1' '4-ACSR-B-6X1']
New Line.695135340 Phases= 3 Bus1=254433040.1.2.3 Bus2=695135338.1.2.3 Length=27.13  units=m  Spacing=DBL-CKT-10'-&amp;-8'-ARMS-3PH wires=['336-ACSR-B-18X1' '336-ACSR-B-18X1' '336-ACSR-B-18X1' '336-ACSR-B-18X1']
New Line.263877429 Phases= 3 Bus1=254444329.1.2.3 Bus2=263877431.1.2.3 Length=1.53   units=m  Spacing=8'-ARM-STANDARD-3PH wires=['1/0-ACSR-B-6X1' '1/0-ACSR-B-6X1' '1/0-ACSR-B-6X1' '1/0-ACSR-B-6X1']
New Line.254438516 Phases= 3 Bus1=254438513.1.2.3 Bus2=254438518.1.2.3 Length=17.57  units=m  Spacing=8'-ARM-NON-CENTER-POST-3PH wires=['1/0-ACSR-B-6X1' '1/0-ACSR-B-6X1' '1/0-ACSR-B-6X1' '1/0-ACSR-B-6X1']
New Line.624620827 Phases= 2 Bus1=624620824.1.2   Bus2=254444419.1.2   Length=12.82  units=m  Spacing=HORIZ-LINE-POST-2PH wires=['1/0-ACSR-WP-6X1' '1/0-ACSR-WP-6X1' '1/0-ACSR-WP-6X1']
New Line.259236633 Phases= 3 Bus1=259236634.1.2.3 Bus2=259236635.1.2.3 Length=45.32  units=m  Spacing=8'-ARM-STANDARD-3PH wires=['1/0-ACSR-B-6X1' '1/0-ACSR-B-6X1' '1/0-ACSR-B-6X1' '1/0-ACSR-B-6X1']
New Line.624622153 Bus1=624622150.1.2.3 Bus2=261121609.1.2.3 LineCode=1/0-AL-TRXLPELCJ-25KV Phases= 3 Length=86.51  units=m enable=yes
!New Line.254399393 Phases= 3 Bus1=MOCKSVILLE_MN_03552401.1.2.3 Bus2=254399395.1.2.3 Length=13.70  units=m  Spacing=8'-ARM-NON-CENTER-POST-3PH wires=['336-ACSR-B-18X1' '336-ACSR-B-18X1' '336-ACSR-B-18X1' '1/0-ACSR-B-6X1']
New Line.254438511 Phases= 3 Bus1=254438508.1.2.3 Bus2=254438513.1.2.3 Length=65.58  units=m  Spacing=8'-ARM-NON-CENTER-POST-3PH wires=['1/0-ACSR-B-6X1' '1/0-ACSR-B-6X1' '1/0-ACSR-B-6X1' '1/0-ACSR-B-6X1']
New Line.254437770 Phases= 3 Bus1=254437765.1.2.3 Bus2=254437772.1.2.3 Length=62.70  units=m  Spacing=8'-ARM-STANDARD-3PH wires=['2-ACSR-B-6X1' '2-ACSR-B-6X1' '2-ACSR-B-6X1' '2-ACSR-B-6X1']
New Line.452167280 Phases= 3 Bus1=254433244.1.2.3 Bus2=254433249.1.2.3 Length=47.35  units=m  Spacing=8'-ARM-NON-CENTER-POST-3PH wires=['336-ACSR-B-18X1' '336-ACSR-B-18X1' '336-ACSR-B-18X1' '336-ACSR-B-18X1']
New Line.264532972 Phases= 3 Bus1=254437372.1.2.3 Bus2=264532974.1.2.3 Length=1.53   units=m  Spacing=8'-ARM-NON-CENTER-POST-3PH wires=['336-ACSR-B-18X1' '336-ACSR-B-18X1' '336-ACSR-B-18X1' '1/0-ACSR-B-6X1']
New Line.620187169 Bus1=620187154.1.2.3 Bus2=620187167.1.2.3 LineCode=1/0-AL-TRXLPELCJ-25KV Phases= 3 Length=83.54  units=m enable=yes
New Line.483410219 Bus1=254437959.2     Bus2=483410221.2     LineCode=1/0-AL-HMWPECN-25KV Phases= 1 Length=1.52   units=m enable=yes
New Line.261280103 Bus1=260116788.1.2.3 Bus2=261280105.1.2.3 LineCode=1/0-AL-TRXLPELCJ-25KV Phases= 3 Length=29.12  units=m enable=yes
New Line.483410006 Phases= 3 Bus1=483409993.1.2.3 Bus2=483410005.1.2.3 Length=8.77   units=m  Spacing=8'-ARM-STANDARD-3PH wires=['1/0-ACSR-B-6X1' '1/0-ACSR-B-6X1' '1/0-ACSR-B-6X1' '1/0-ACSR-B-6X1']
New Line.254443729 Phases= 3 Bus1=254443730.1.2.3 Bus2=254443731.1.2.3 Length=31.56  units=m  Spacing=8'-ARM-NON-CENTER-POST-3PH wires=['2-ACSR-B-6X1' '2-ACSR-B-6X1' '2-ACSR-B-6X1' '1/0-ACSR-B-6X1']
New Line.259992823 Phases= 3 Bus1=254437363.1.2.3 Bus2=259143373.1.2.3 Length=41.97  units=m  Spacing=8'-ARM-NON-CENTER-POST-3PH wires=['336-ACSR-B-18X1' '336-ACSR-B-18X1' '336-ACSR-B-18X1' '1/0-ACSR-B-6X1']
New Line.624621506 Phases= 3 Bus1=624621479.1.2.3 Bus2=624621504.1.2.3 Length=36.64  units=m  Spacing=HORIZ-LINE-POST-3PH wires=['336-ACSR-B-18X1' '336-ACSR-B-18X1' '336-ACSR-B-18X1' '1/0-ACSR-B-6X1']
New Line.254438175 Phases= 3 Bus1=254438172.1.2.3 Bus2=254438177.1.2.3 Length=99.87  units=m  Spacing=8'-ARM-NON-CENTER-POST-3PH wires=['4-ACSR-B-6X1' '4-ACSR-B-6X1' '1/0-ACSR-B-6X1' '4-ACSR-B-6X1']
New Line.624566516 Phases= 3 Bus1=624566513.1.2.3 Bus2=254444068.1.2.3 Length=14.01  units=m  Spacing=8'-ARM-NON-CENTER-POST-3PH wires=['1/0-CU-TBWP-7' '1/0-CU-TBWP-7' '1/0-CU-TBWP-7' '1/0-CU-TBWP-7']
New Line.254437937 Phases= 1 Bus1=254437934.2     Bus2=254437939.2     Length=76.90  units=m  Spacing=VERTICAL-1-PH-60-1PH wires=['4-ACSR-B-6X1' '4-ACSR-B-6X1']
New Line.264425804 Phases= 1 Bus1=254437939.2     Bus2=264425806.2     Length=1.52   units=m  Spacing=VERTICAL-1-PH-60-1PH wires=['2-ACSR-B-6X1' '2-ACSR-B-6X1']
New Line.254437509 Phases= 1 Bus1=254437506.3     Bus2=254437511.3     Length=32.51  units=m  Spacing=VERTICAL-1-PH-60-1PH wires=['2-ACSR-B-6X1' '2-ACSR-B-6X1']
New Line.254444316 Phases= 3 Bus1=254444317.1.2.3 Bus2=254444318.1.2.3 Length=20.34  units=m  Spacing=HORIZ-LINE-POST-3PH wires=['2-ACSR-B-6X1' '2-ACSR-B-6X1' '2-ACSR-B-6X1' '2-ACSR-B-6X1']
New Line.262293481 Phases= 1 Bus1=254444298.3     Bus2=262293483.3     Length=1.52   units=m  Spacing=VERTICAL-1-PH-60-1PH wires=['1/0-ACSR-B-6X1' '1/0-ACSR-B-6X1']
New Line.254443408 Phases= 3 Bus1=254443405.1.2.3 Bus2=254443410.1.2.3 Length=31.76  units=m  Spacing=8'-ARM-NON-CENTER-POST-3PH wires=['4-ACSR-B-6X1' '4-ACSR-B-6X1' '4-ACSR-B-6X1' '4-ACSR-B-6X1']
New Line.254437651 Phases= 3 Bus1=254437646.1.2.3 Bus2=254437653.1.2.3 Length=39.82  units=m  Spacing=8'-ARM-NON-CENTER-POST-3PH wires=['4-ACSR-B-6X1' '4-ACSR-B-6X1' '1/0-ACSR-B-6X1' '2-ACSR-B-6X1']
New Line.620619025 Phases= 3 Bus1=254443534.1.2.3 Bus2=620619023.1.2.3 Length=37.23  units=m  Spacing=8'-ARM-NON-CENTER-POST-3PH wires=['1/0-ACSR-B-6X1' '1/0-ACSR-B-6X1' '1/0-ACSR-B-6X1' '1/0-ACSR-B-6X1']
New Line.254437932 Phases= 1 Bus1=254437929.2     Bus2=254437934.2     Length=27.77  units=m  Spacing=VERTICAL-1-PH-60-1PH wires=['4-ACSR-B-6X1' '4-ACSR-B-6X1']
New Line.263994467 Phases= 3 Bus1=263994464.1.2.3 Bus2=259539240.1.2.3 Length=25.98  units=m  Spacing=8'-ARM-STANDARD-3PH wires=['1/0-ACSR-B-6X1' '1/0-ACSR-B-6X1' '1/0-ACSR-B-6X1' '1/0-ACSR-B-6X1']
New Line.254443212 Phases= 1 Bus1=254438239.1     Bus2=254443214.1     Length=99.51  units=m  Spacing=VERTICAL-1-PH-60-1PH wires=['2-ACSR-B-6X1' '2-ACSR-B-6X1']
New Line.254437614 Phases= 3 Bus1=254437601.1.2.3 Bus2=254437616.1.2.3 Length=146.60 units=m  Spacing=8'-ARM-NON-CENTER-POST-3PH wires=['4-ACSR-B-6X1' '4-ACSR-B-6X1' '1/0-ACSR-B-6X1' '2-ACSR-B-6X1']
New Line.254433374 Phases= 3 Bus1=254433371.1.2.3 Bus2=254433376.1.2.3 Length=83.21  units=m  Spacing=8'-ARM-NON-CENTER-POST-3PH wires=['336-ACSR-B-18X1' '336-ACSR-B-18X1' '336-ACSR-B-18X1' '1/0-ACSR-B-6X1']
!New Line.482825962 Phases= 3 Bus1=264425698.1.2.3 Bus2=254432408.1.2.3 Length=1.53   units=m  Spacing=HORIZ-LINE-POST-3PH wires=['336-ACSR-B-18X1' '336-ACSR-B-18X1' '336-ACSR-B-18X1' '1/0-ACSR-B-6X1']
New Line.624564094 Phases= 1 Bus1=624564091.2     Bus2=254437668.2     Length=238.00 units=m  Spacing=VERTICAL-1-PH-60-1PH wires=['2-ACSR-B-6X1' '2-ACSR-B-6X1']
New Line.260115353 Bus1=260115350.3     Bus2=260115355.3     LineCode=1/0-AL-HMWPECN-25KV Phases= 1 Length=71.78  units=m enable=yes
New Line.482827038 Phases= 3 Bus1=254437444.1.2.3 Bus2=264389201.1.2.3 Length=1.52   units=m  Spacing=8'-ARM-NON-CENTER-POST-3PH wires=['1/0-ACSR-B-6X1' '1/0-ACSR-B-6X1' '1/0-ACSR-B-6X1' '2-ACSR-B-6X1']
New Line.254437835 Phases= 3 Bus1=254437832.1.2.3 Bus2=254437837.1.2.3 Length=152.30 units=m  Spacing=8'-ARM-NON-CENTER-POST-3PH wires=['4-ACSR-B-6X1' '4-ACSR-B-6X1' '1/0-ACSR-B-6X1' '2-ACSR-B-6X1']
New Line.624621455 Phases= 3 Bus1=624621452.1.2.3 Bus2=254433398.1.2.3 Length=44.26  units=m  Spacing=HORIZ-LINE-POST-3PH wires=['336-ACSR-B-18X1' '336-ACSR-B-18X1' '336-ACSR-B-18X1' '1/0-ACSR-B-6X1']
New Line.262293472 Bus1=254444293.1.2.3 Bus2=262293474.1.2.3 LineCode=1/0-AL-HMWPECN-25KV Phases= 3 Length=1.51   units=m enable=yes
New Line.262293513 Bus1=262293510.1.2.3 Bus2=260116863.1.2.3 LineCode=1/0-AL-HMWPECN-25KV Phases= 3 Length=112.30 units=m enable=yes
New Line.624565979 Phases= 2 Bus1=254444204.1.2   Bus2=624565977.1.2   Length=18.18  units=m  Spacing=8'-ARM-STANDARD-2PH wires=['1/0-ACSR-B-6X1' '1/0-ACSR-B-6X1' '1/0-ACSR-B-6X1']
New Line.254437639 Phases= 1 Bus1=254437636.1     Bus2=254437641.1     Length=117.30 units=m  Spacing=VERTICAL-1-PH-60-1PH wires=['4-ACSR-B-6X1' '4-ACSR-B-6X1']
New Line.254443222 Phases= 1 Bus1=254443219.2     Bus2=254443224.2     Length=69.95  units=m  Spacing=VERTICAL-1-PH-60-1PH wires=['2-ACSR-B-6X1' '2-ACSR-B-6X1']
New Line.624565547 Phases= 3 Bus1=254443938.1.2.3 Bus2=624565545.1.2.3 Length=34.32  units=m  Spacing=8'-ARM-NON-CENTER-POST-3PH wires=['1/0-CU-TBWP-7' '1/0-CU-TBWP-7' '1/0-CU-TBWP-7' '1/0-CU-TBWP-7']
New Line.254437366 Phases= 2 Bus1=254437363.1.2   Bus2=254437368.1.2   Length=19.00  units=m  Spacing=8'-ARM-STANDARD-2PH wires=['1/0-ACSR-B-6X1' '1/0-ACSR-B-6X1' '1/0-ACSR-B-6X1']
New Line.254433458 Phases= 1 Bus1=254433455.2     Bus2=254433460.2     Length=29.09  units=m  Spacing=VERTICAL-1-PH-60-1PH wires=['2-ACSR-B-6X1' '2-ACSR-B-6X1']
New Line.620619274 Phases= 3 Bus1=620619271.1.2.3 Bus2=254443509.1.2.3 Length=13.34  units=m  Spacing=8'-ARM-NON-CENTER-POST-3PH wires=['1/0-ACSR-B-6X1' '1/0-ACSR-B-6X1' '1/0-ACSR-B-6X1' '1/0-ACSR-B-6X1']
New Line.262291936 Phases= 1 Bus1=254437959.2     Bus2=262291938.2     Length=1.52   units=m  Spacing=VERTICAL-1-PH-60-1PH wires=['1/0-ACSR-B-6X1' '1/0-ACSR-B-6X1']
New Line.260115348 Bus1=260115345.3     Bus2=260115350.3     LineCode=1/0-AL-HMWPECN-25KV Phases= 1 Length=133.10 units=m enable=yes
New Line.262290741 Bus1=262290738.3     Bus2=260115345.3     LineCode=1/0-AL-HMWPECN-25KV Phases= 1 Length=124.30 units=m enable=yes
New Line.254433026 Phases= 3 Bus1=254433016.1.2.3 Bus2=254433028.1.2.3 Length=18.58  units=m  Spacing=DBL-CKT-10'-&amp;-8'-ARMS-3PH wires=['336-ACSR-B-18X1' '336-ACSR-B-18X1' '336-ACSR-B-18X1' '336-ACSR-B-18X1']
New Line.254443764 Phases= 1 Bus1=254443756.3     Bus2=254443766.3     Length=59.71  units=m  Spacing=VERTICAL-1-PH-60-1PH wires=['1/0-ACSR-B-6X1' '1/0-ACSR-B-6X1']
New Line.254437584 Phases= 1 Bus1=254437581.3     Bus2=254437586.3     Length=97.32  units=m  Spacing=VERTICAL-1-PH-60-1PH wires=['2-ACSR-B-6X1' '2-ACSR-B-6X1']
New Line.262292089 Phases= 1 Bus1=254438383.1     Bus2=262292091.1     Length=1.53   units=m  Spacing=VERTICAL-1-PH-60-1PH wires=['2-ACSR-B-6X1' '2-ACSR-B-6X1']
New Line.264030173 Phases= 1 Bus1=264030170.1     Bus2=254438239.1     Length=39.21  units=m  Spacing=VERTICAL-1-PH-60-1PH wires=['2-ACSR-B-6X1' '2-ACSR-B-6X1']
New Line.262292022 Bus1=262292019.2     Bus2=260116129.2     LineCode=1/0-AL-TRXLPELCJ-25KV Phases= 1 Length=85.98  units=m enable=yes
New Line.624542782 Phases= 1 Bus1=254438498.3     Bus2=624542780.3     Length=60.76  units=m  Spacing=VERTICAL-1-PH-60-1PH wires=['4-ACSR-B-6X1' '4-ACSR-B-6X1']
New Line.620619348 Phases= 3 Bus1=483410005.1.2.3 Bus2=620619346.1.2.3 Length=51.07  units=m  Spacing=8'-ARM-STANDARD-3PH wires=['1/0-ACSR-B-6X1' '1/0-ACSR-B-6X1' '1/0-ACSR-B-6X1' '1/0-ACSR-B-6X1']
New Line.620618995 Phases= 3 Bus1=620618992.1.2.3 Bus2=620618975.1.2.3 Length=46.36  units=m  Spacing=8'-ARM-NON-CENTER-POST-3PH wires=['1/0-ACSR-B-6X1' '1/0-ACSR-B-6X1' '1/0-ACSR-B-6X1' '1/0-ACSR-B-6X1']
New Line.254433272 Phases= 3 Bus1=254433269.1.2.3 Bus2=254433274.1.2.3 Length=50.73  units=m  Spacing=8'-ARM-NON-CENTER-POST-3PH wires=['336-ACSR-B-18X1' '336-ACSR-B-18X1' '336-ACSR-B-18X1' '336-ACSR-B-18X1']
New Line.624563968 Phases= 3 Bus1=624563965.1.2.3 Bus2=624540432.1.2.3 Length=35.49  units=m  Spacing=8'-ARM-NON-CENTER-POST-3PH wires=['336-ACSR-B-18X1' '336-ACSR-B-18X1' '336-ACSR-B-18X1' '1/0-ACSR-B-6X1']
New Line.254437977 Phases= 1 Bus1=254437974.2     Bus2=254437979.2     Length=59.82  units=m  Spacing=VERTICAL-1-PH-60-1PH wires=['4-ACSR-B-6X1' '4-ACSR-B-6X1']
New Line.254438087 Phases= 3 Bus1=254438074.1.2.3 Bus2=254438089.1.2.3 Length=77.67  units=m  Spacing=8'-ARM-NON-CENTER-POST-3PH wires=['1/0-ACSR-B-6X1' '1/0-ACSR-B-6X1' '1/0-ACSR-B-6X1' '2-ACSR-B-6X1']
New Line.624587339 Phases= 3 Bus1=624587336.1.2.3 Bus2=254444149.1.2.3 Length=16.11  units=m  Spacing=8'-ARM-NON-CENTER-POST-3PH wires=['6-CU-B-S' '6-CU-B-S' '6-CU-B-S' '6-CU-B-S']
New Line.262291747 Phases= 3 Bus1=254437412.1.2.3 Bus2=262291749.1.2.3 Length=1.53   units=m  Spacing=8'-ARM-NON-CENTER-POST-3PH wires=['1/0-CU-TBWP-7' '1/0-CU-TBWP-7' '1/0-CU-TBWP-7' '1/0-CU-TBWP-7']
New Line.261276143 Bus1=261276135.1.2.3 Bus2=261276139.1.2.3 LineCode=1/0-AL-TRXLPELCJ-25KV Phases= 3 Length=99.25  units=m enable=yes
New Line.260854009 Bus1=260854010.1.2.3 Bus2=260854006.1.2.3 LineCode=1/0-AL-TRXLPELCJ-25KV Phases= 3 Length=246.40 units=m enable=yes
New Line.262291909 Phases= 1 Bus1=254437909.2     Bus2=262291911.2     Length=1.53   units=m  Spacing=VERTICAL-1-PH-60-1PH wires=['2-ACSR-B-6X1' '2-ACSR-B-6X1']
New Line.262291828 Phases= 1 Bus1=254437695.1     Bus2=262291830.1     Length=1.53   units=m  Spacing=VERTICAL-1-PH-60-1PH wires=['2-ACSR-B-6X1' '2-ACSR-B-6X1']
New Line.262293499 Phases= 2 Bus1=254444342.1.2   Bus2=262293501.1.2   Length=1.53   units=m  Spacing=8'-ARM-STANDARD-2PH wires=['2-ACSR-B-6X1' '2-ACSR-B-6X1' '1/0-ACSR-B-6X1']
New Line.254433167 Phases= 2 Bus1=254433164.1.2   Bus2=254433169.1.2   Length=38.84  units=m  Spacing=8'-ARM-STANDARD-2PH wires=['1/0-ACSR-B-6X1' '1/0-ACSR-B-6X1' '1/0-ACSR-B-6X1']
New Line.254444462 Phases= 3 Bus1=254444459.1.2.3 Bus2=254444464.1.2.3 Length=23.70  units=m  Spacing=8'-ARM-NON-CENTER-POST-3PH wires=['336-ACSR-B-18X1' '336-ACSR-B-18X1' '336-ACSR-B-18X1' '1/0-ACSR-B-6X1']
New Line.254444333 Phases= 3 Bus1=254433433.1.2.3 Bus2=254444335.1.2.3 Length=16.60  units=m  Spacing=8'-ARM-NON-CENTER-POST-3PH wires=['336-ACSR-B-18X1' '336-ACSR-B-18X1' '336-ACSR-B-18X1' '1/0-ACSR-B-6X1']
New Line.624566421 Phases= 1 Bus1=624566418.1     Bus2=254444256.1     Length=11.02  units=m  Spacing=VERTICAL-1-PH-60-1PH wires=['1/0-ACSR-B-6X1' '1/0-ACSR-B-6X1']
New Line.254444249 Phases= 1 Bus1=254444246.1     Bus2=254444251.1     Length=87.73  units=m  Spacing=VERTICAL-1-PH-60-1PH wires=['1/0-ACSR-B-6X1' '1/0-ACSR-B-6X1']
New Line.254443448 Phases= 3 Bus1=254443445.1.2.3 Bus2=254443450.1.2.3 Length=32.09  units=m  Spacing=8'-ARM-NON-CENTER-POST-3PH wires=['1/0-ACSR-B-6X1' '1/0-ACSR-B-6X1' '1/0-ACSR-B-6X1' '1/0-ACSR-B-6X1']
New Line.261175903 Bus1=259409968.2     Bus2=261175905.2     LineCode=1/0-AL-TRXLPELCJ-25KV Phases= 1 Length=79.72  units=m enable=yes
New Line.624620990 Phases= 3 Bus1=624620987.1.2.3 Bus2=254444476.1.2.3 Length=30.59  units=m  Spacing=8'-ARM-NON-CENTER-POST-3PH wires=['336-ACSR-B-18X1' '336-ACSR-B-18X1' '336-ACSR-B-18X1' '1/0-ACSR-B-6X1']
New Line.262293540 Phases= 1 Bus1=262293537.2     Bus2=254444454.2     Length=77.00  units=m  Spacing=VERTICAL-1-PH-60-1PH wires=['4-ACSR-B-6X1' '4-ACSR-B-6X1']
New Line.624620826 Phases= 2 Bus1=254444414.1.2   Bus2=624620824.1.2   Length=16.70  units=m  Spacing=HORIZ-LINE-POST-2PH wires=['1/0-ACSR-WP-6X1' '1/0-ACSR-WP-6X1' '1/0-ACSR-WP-6X1']
New Line.262292112 Phases= 1 Bus1=262292109.1     Bus2=254438418.1     Length=165.90 units=m  Spacing=VERTICAL-1-PH-60-1PH wires=['2-ACSR-B-6X1' '2-ACSR-B-6X1']
New Line.791122303 Phases= 1 Bus1=791122299.1     Bus2=791122294.1     Length=81.16  units=m  Spacing=VERTICAL-1-PH-104-1PH wires=['1/0-ACSR-B-6X1' '1/0-ACSR-B-6X1']
New Line.254444387 Phases= 3 Bus1=254444384.1.2.3 Bus2=254444389.1.2.3 Length=21.77  units=m  Spacing=8'-ARM-NON-CENTER-POST-3PH wires=['2-ACSR-B-6X1' '2-ACSR-B-6X1' '2-ACSR-B-6X1' '2-ACSR-B-6X1']
New Line.624620867 Phases= 2 Bus1=254444409.1.2   Bus2=624620865.1.2   Length=43.58  units=m  Spacing=HORIZ-LINE-POST-2PH wires=['1/0-ACSR-WP-6X1' '1/0-ACSR-WP-6X1' '1/0-ACSR-WP-6X1']
New Line.624542625 Phases= 3 Bus1=624542622.1.2.3 Bus2=254438187.1.2.3 Length=89.30  units=m  Spacing=8'-ARM-NON-CENTER-POST-3PH wires=['4-ACSR-B-6X1' '4-ACSR-B-6X1' '4-ACSR-B-6X1' '4-ACSR-B-6X1']
New Line.254437286 Phases= 2 Bus1=254437283.1.2   Bus2=254437288.1.2   Length=31.75  units=m  Spacing=8'-ARM-STANDARD-2PH wires=['2-ACSR-B-6X1' '2-ACSR-B-6X1' '2-ACSR-B-6X1']
New Line.262290691 Bus1=254433229.2     Bus2=262290693.2     LineCode=1/0-AL-HMWPECN-25KV Phases= 1 Length=1.53   units=m enable=yes
New Line.624540110 Phases= 3 Bus1=624540107.1.2.3 Bus2=254433319.1.2.3 Length=63.87  units=m  Spacing=8'-ARM-NON-CENTER-POST-3PH wires=['336-ACSR-B-18X1' '336-ACSR-B-18X1' '336-ACSR-B-18X1' '336-ACSR-B-18X1']
New Line.254443652 Phases= 3 Bus1=254443649.1.2.3 Bus2=254443654.1.2.3 Length=30.37  units=m  Spacing=8'-ARM-NON-CENTER-POST-3PH wires=['1/0-ACSR-B-6X1' '1/0-ACSR-B-6X1' '1/0-ACSR-B-6X1' '1/0-ACSR-B-6X1']
New Line.254444264 Phases= 1 Bus1=254444261.1     Bus2=254444266.1     Length=38.51  units=m  Spacing=VERTICAL-1-PH-60-1PH wires=['1/0-ACSR-B-6X1' '1/0-ACSR-B-6X1']
New Line.262291986 Phases= 1 Bus1=262291983.2     Bus2=254438079.2     Length=120.70 units=m  Spacing=VERTICAL-1-PH-60-1PH wires=['2-ACSR-B-6X1' '2-ACSR-B-6X1']
New Line.259152777 Phases= 1 Bus1=254438197.2     Bus2=259152779.2     Length=29.00  units=m  Spacing=VERTICAL-1-PH-104-1PH wires=['2-ACSR-B-6X1' '2-ACSR-B-6X1']
New Line.254444177 Phases= 2 Bus1=254444174.1.2   Bus2=254444179.1.2   Length=49.74  units=m  Spacing=8'-ARM-STANDARD-2PH wires=['1/0-ACSR-B-6X1' '1/0-ACSR-B-6X1' '1/0-ACSR-B-6X1']
New Line.254443849 Phases= 1 Bus1=254443846.3     Bus2=254443851.3     Length=61.45  units=m  Spacing=VERTICAL-1-PH-60-1PH wires=['2-ACSR-B-6X1' '2-ACSR-B-6X1']
New Line.259566209 Phases= 1 Bus1=254437944.2     Bus2=254437953.2     Length=112.00 units=m  Spacing=VERTICAL-1-PH-60-1PH wires=['4-ACSR-B-6X1' '4-ACSR-B-6X1']
New Line.624587392 Phases= 3 Bus1=254444112.1.2.3 Bus2=624587390.1.2.3 Length=18.34  units=m  Spacing=8'-ARM-NON-CENTER-POST-3PH wires=['1/0-ACSR-B-6X1' '1/0-ACSR-B-6X1' '1/0-ACSR-B-6X1' '1/0-ACSR-B-6X1']
New Line.254443299 Phases= 3 Bus1=254443291.1.2.3 Bus2=254443301.1.2.3 Length=19.22  units=m  Spacing=8'-ARM-NON-CENTER-POST-3PH wires=['1/0-ACSR-B-6X1' '1/0-ACSR-B-6X1' '1/0-ACSR-B-6X1' '1/0-ACSR-B-6X1']
New Line.262292094 Phases= 1 Bus1=262292091.1     Bus2=254438393.1     Length=67.71  units=m  Spacing=VERTICAL-1-PH-60-1PH wires=['2-ACSR-B-6X1' '2-ACSR-B-6X1']
New Line.262292071 Phases= 1 Bus1=254438353.1     Bus2=262292073.1     Length=1.52   units=m  Spacing=VERTICAL-1-PH-60-1PH wires=['1/0-ACSR-WP-6X1' '1/0-ACSR-WP-6X1']
New Line.699304478 Phases= 1 Bus1=699304475.1     Bus2=254438133.1     Length=31.52  units=m  Spacing=VERTICAL-1-PH-60-1PH wires=['2-ACSR-B-6X1' '2-ACSR-B-6X1']
New Line.259236643 Phases= 3 Bus1=254444389.1.2.3 Bus2=259236639.1.2.3 Length=38.44  units=m  Spacing=8'-ARM-STANDARD-3PH wires=['1/0-ACSR-B-6X1' '1/0-ACSR-B-6X1' '1/0-ACSR-B-6X1' '1/0-ACSR-B-6X1']
New Line.624621605 Phases= 3 Bus1=254433309.1.2.3 Bus2=624621603.1.2.3 Length=101.70 units=m  Spacing=8'-ARM-NON-CENTER-POST-3PH wires=['336-ACSR-B-18X1' '336-ACSR-B-18X1' '336-ACSR-B-18X1' '336-ACSR-B-18X1']
New Line.254437554 Phases= 1 Bus1=254437551.3     Bus2=254437556.3     Length=46.25  units=m  Spacing=VERTICAL-1-PH-60-1PH wires=['2-ACSR-B-6X1' '2-ACSR-B-6X1']
New Line.620187152 Bus1=620187127.1.2.3 Bus2=620187154.1.2.3 LineCode=1/0-AL-TRXLPELCJ-25KV Phases= 3 Length=1.53   units=m enable=yes
...